<?xml version="1.0" encoding="UTF-8"?>

<!-- generated on Tue Dec 20 14:11:53 2016 by SUMO polyconvert Version 0.27.1
<?xml version="1.0" encoding="UTF-8"?>

<configuration xmlns:xsi="http://www.w3.org/2001/XMLSchema-instance" xsi:noNamespaceSchemaLocation="http://sumo.dlr.de/xsd/polyconvertConfiguration.xsd">

    <input>
        <net-file value="/Users/FreeGeng/desktop/map.net.xml"/>
        <osm-files value="/Users/FreeGeng/desktop/map"/>
        <type-file value="/Users/FreeGeng/desktop/typemap.xml"/>
    </input>

    <output>
        <output-file value="map.poly.xml"/>
    </output>

    <processing>
        <poi-layer-offset value="5"/>
    </processing>

</configuration>
-->

<additional xmlns:xsi="http://www.w3.org/2001/XMLSchema-instance" xsi:noNamespaceSchemaLocation="http://sumo.dlr.de/xsd/additional_file.xsd">
    <location netOffset="-280895.82,-2728508.71" convBoundary="-10534.50,-52317.67,37458.83,35849.85" origBoundary="120.737998,24.184259,121.204362,24.983613" projParameter="+proj=utm +zone=51 +ellps=WGS84 +datum=WGS84 +units=m +no_defs"/>

    <poly id="100058974" type="amenity" color="237,199,199" fill="1" layer="-1.00" shape="13263.49,17122.90 13250.89,17181.43 13304.73,17218.98 13306.72,17215.74 13336.10,17168.00 13263.49,17122.90"/>
    <poly id="100058974#1" type="building" color="255,230,230" fill="1" layer="-1.00" shape="13263.49,17122.90 13250.89,17181.43 13304.73,17218.98 13306.72,17215.74 13336.10,17168.00 13263.49,17122.90"/>
    <poly id="100635016" type="amenity" color="237,199,199" fill="1" layer="-1.00" shape="14418.56,15118.61 14551.85,15168.98 14567.10,15130.04 14586.91,15137.70 14642.70,14984.24 14593.45,14966.53 14486.00,14942.63 14458.33,15043.31 14418.56,15118.61"/>
    <poly id="101262367" type="landuse" color="194,194,130" fill="1" layer="-3.00" shape="13922.64,17895.39 13853.75,17973.45 13925.88,18034.74 13984.81,18003.92 14025.70,17981.19 13922.64,17895.39"/>
    <poly id="101262378" type="leisure" color="207,245,201" fill="1" layer="-2.00" shape="11910.19,16146.41 11930.23,16165.09 11919.85,16175.85 11899.70,16157.39 11910.19,16146.41"/>
    <poly id="101262378#1" type="sport" color="79,230,125" fill="1" layer="-2.00" shape="11910.19,16146.41 11930.23,16165.09 11919.85,16175.85 11899.70,16157.39 11910.19,16146.41"/>
    <poly id="102940143" type="water" color="181,209,209" fill="0" layer="-4.00" shape="11629.93,15186.03 11615.70,15193.86 11604.44,15200.05 11580.35,15233.81 11571.47,15243.84 11498.08,15315.40 11457.08,15346.34 11431.77,15367.16 11406.80,15370.61 11404.50,15377.45 11387.39,15379.07 11371.19,15395.34 11360.59,15396.18 11346.53,15418.04 11350.54,15441.09 11348.30,15451.68 11326.44,15481.69 11326.04,15527.34 11301.19,15537.94 11278.58,15561.44 11270.22,15620.86 11249.93,15661.72 11234.67,15694.66 11221.04,15699.63 11156.61,15676.42 11143.23,15675.26 11138.62,15687.25 11138.74,15695.77 11134.13,15707.42 11141.13,15740.37 11133.00,15769.45 11131.43,15801.85 11116.43,15829.84 11097.75,15840.70 11079.95,15841.64 11070.65,15861.20 11070.47,15871.78 11078.67,15915.95 11042.38,15917.86 11030.47,15923.49 11009.21,15944.94 11002.12,15975.03 10976.94,15988.57"/>
    <poly id="102940145" type="amenity" color="237,199,199" fill="1" layer="-1.00" shape="18119.84,14187.33 18069.86,14225.86 18123.09,14360.22 18184.48,14510.30 18288.62,14437.95 18233.54,14267.71 18161.70,14295.16 18119.84,14187.33"/>
    <poly id="103770484" type="parking" color="184,184,179" fill="1" layer="-1.00" shape="15250.32,16296.45 15373.77,16379.52 15391.06,16353.65 15398.77,16340.58 15415.81,16311.77 15293.01,16230.77 15250.32,16296.45"/>
    <poly id="103770490" type="parking" color="184,184,179" fill="1" layer="-1.00" shape="14903.62,16228.94 14830.74,16244.76 14791.45,16306.05 14832.25,16329.69 14882.65,16322.94 14872.83,16270.37 14911.59,16258.56 14903.62,16228.94"/>
    <poly id="103770492" type="leisure" color="207,245,201" fill="1" layer="-2.00" shape="16418.95,14598.52 16418.53,14601.38 16417.92,14603.73 16417.12,14606.19 16416.32,14608.39 16415.08,14611.16 16413.42,14613.98 16411.41,14617.14 16409.08,14619.90 16405.71,14623.63 16401.54,14627.35 16397.58,14630.24 16393.94,14632.32 16389.65,14634.24 16385.18,14635.93 16381.78,14636.88 16377.24,14637.61 16370.85,14637.77 16366.73,14637.39 16361.38,14636.52 16357.53,14635.53 16353.69,14634.04 16349.06,14631.27 16344.54,14628.43 16340.83,14625.48 16336.99,14622.08 16333.95,14618.19 16332.30,14615.51 16330.52,14612.20 16328.57,14608.39 16326.82,14603.67 16326.04,14599.75 16322.39,14503.15 16323.19,14495.97 16324.72,14490.67 16326.95,14485.37 16330.31,14480.38 16333.73,14475.87 16337.28,14472.06 16341.06,14468.95 16344.93,14466.39 16351.29,14463.71 16357.74,14461.41 16363.06,14460.54 16368.13,14459.95 16371.29,14460.09 16374.64,14460.37 16377.99,14460.73 16381.23,14461.52 16388.23,14464.39 16395.01,14468.35 16399.33,14471.74 16403.14,14475.75 16406.13,14479.75 16408.39,14483.41 16410.31,14486.74 16411.76,14490.21 16412.94,14493.84 16413.67,14497.43 16418.95,14598.52"/>
    <poly id="103770492#1" type="sport" color="79,230,125" fill="1" layer="-2.00" shape="16418.95,14598.52 16418.53,14601.38 16417.92,14603.73 16417.12,14606.19 16416.32,14608.39 16415.08,14611.16 16413.42,14613.98 16411.41,14617.14 16409.08,14619.90 16405.71,14623.63 16401.54,14627.35 16397.58,14630.24 16393.94,14632.32 16389.65,14634.24 16385.18,14635.93 16381.78,14636.88 16377.24,14637.61 16370.85,14637.77 16366.73,14637.39 16361.38,14636.52 16357.53,14635.53 16353.69,14634.04 16349.06,14631.27 16344.54,14628.43 16340.83,14625.48 16336.99,14622.08 16333.95,14618.19 16332.30,14615.51 16330.52,14612.20 16328.57,14608.39 16326.82,14603.67 16326.04,14599.75 16322.39,14503.15 16323.19,14495.97 16324.72,14490.67 16326.95,14485.37 16330.31,14480.38 16333.73,14475.87 16337.28,14472.06 16341.06,14468.95 16344.93,14466.39 16351.29,14463.71 16357.74,14461.41 16363.06,14460.54 16368.13,14459.95 16371.29,14460.09 16374.64,14460.37 16377.99,14460.73 16381.23,14461.52 16388.23,14464.39 16395.01,14468.35 16399.33,14471.74 16403.14,14475.75 16406.13,14479.75 16408.39,14483.41 16410.31,14486.74 16411.76,14490.21 16412.94,14493.84 16413.67,14497.43 16418.95,14598.52"/>
    <poly id="103972635" type="amenity" color="237,199,199" fill="1" layer="-1.00" shape="12908.41,15650.05 12905.02,15659.37 12961.80,15741.00 12953.91,15759.63 12953.47,15760.75 13040.96,15823.88 13088.42,15753.66 13081.71,15721.32 13080.79,15716.87 13092.32,15699.12 13068.97,15662.49 13002.39,15620.26 12955.70,15630.01 12908.41,15650.05"/>
    <poly id="103972685" type="parking" color="184,184,179" fill="1" layer="-1.00" shape="15329.55,16474.08 15284.65,16542.70 15383.34,16599.57 15414.07,16618.66 15439.44,16588.56 15421.08,16575.03 15440.90,16542.46 15329.55,16474.08"/>
    <poly id="105062868" type="amenity" color="237,199,199" fill="1" layer="-1.00" shape="9426.67,14635.25 9580.53,14763.57 9608.41,14728.04 9590.10,14713.76 9638.71,14653.06 9558.82,14602.30 9455.58,14533.88 9442.83,14547.58 9442.61,14574.17 9442.18,14587.05 9426.67,14635.25"/>
    <poly id="105062875" type="water" color="181,209,209" fill="0" layer="-4.00" shape="10277.24,13822.23 10261.89,13843.56 10256.08,13847.87 10228.10,13854.14 10212.86,13860.21 10190.53,13894.95 10184.17,13927.83 10181.50,13966.17 10178.48,13982.45 10150.71,14023.93 10086.01,14106.06 10057.91,14125.64 10036.77,14162.48 10006.63,14176.89 9954.28,14190.34 9922.26,14209.97 9860.01,14280.39 9812.68,14344.07 9806.39,14360.72 9757.21,14453.16 9743.52,14497.84 9727.53,14572.90 9721.96,14612.57 9724.82,14624.33 9724.38,14651.09 9727.41,14674.48 9743.62,14707.20 9789.37,14776.09 9800.65,14790.05 9800.32,14795.45 9794.92,14811.94 9772.59,14840.53 9745.24,14855.08 9715.02,14873.20 9700.10,14895.65 9693.87,14911.11 9693.20,14936.15 9718.60,14985.21 9732.05,15004.53 9741.26,15019.66 9748.79,15048.00 9742.45,15070.74 9730.71,15081.93 9697.61,15088.87 9687.85,15092.97 9667.86,15110.20 9664.17,15129.16 9674.66,15146.04 9692.68,15162.79 9698.92,15189.18 9704.92,15213.40 9698.53,15231.78 9676.70,15238.96 9641.89,15230.14 9613.17,15223.31 9588.69,15234.06 9563.69,15266.02 9552.80,15277.71 9511.13,15285.41 9480.28,15295.85 9448.73,15322.91 9425.13,15336.99 9398.01,15339.26 9367.84,15333.08 9352.32,15328.53 9329.98,15336.35 9307.49,15354.97 9274.43,15378.84 9231.90,15397.15 9195.79,15440.38 9146.73,15538.76 9112.70,15587.27 9075.63,15635.61 8921.46,15751.26 8829.29,15816.34 8770.13,15861.58 8737.58,15918.37 8674.29,15965.61 8596.67,16011.86 8532.56,16053.76 8500.68,16069.26 8480.51,16079.06 8386.56,16087.98 8174.55,16062.05 8048.63,16040.09"/>
    <poly id="106294815" type="parking" color="184,184,179" fill="1" layer="-1.00" shape="13812.85,17096.40 13778.95,17073.28 13746.09,17114.51 13753.09,17159.40 13767.76,17157.18 13766.36,17146.83 13774.42,17145.48 13772.80,17134.93 13794.16,17130.77 13795.75,17140.51 13798.46,17142.35 13815.83,17119.34 13812.85,17096.40"/>
    <poly id="115786638" type="parking" color="184,184,179" fill="1" layer="-1.00" shape="15506.04,13735.29 15544.09,13766.60 15562.28,13744.29 15524.81,13711.57 15506.04,13735.29"/>
    <poly id="115786640" type="leisure" color="207,245,201" fill="1" layer="-2.00" shape="16278.04,15383.75 16301.01,15380.93 16316.12,15394.84 16322.18,15450.56 16313.87,15470.95 16289.48,15474.27 16271.66,15459.96 16265.16,15399.19 16278.04,15383.75"/>
    <poly id="115786640#1" type="sport" color="79,230,125" fill="1" layer="-2.00" shape="16278.04,15383.75 16301.01,15380.93 16316.12,15394.84 16322.18,15450.56 16313.87,15470.95 16289.48,15474.27 16271.66,15459.96 16265.16,15399.19 16278.04,15383.75"/>
    <poly id="115786642" type="parking" color="184,184,179" fill="1" layer="-1.00" shape="12626.81,15162.82 12603.88,15112.02 12516.77,15152.90 12554.99,15230.67 12608.04,15197.19 12599.02,15185.71 12604.23,15174.95 12614.38,15166.31 12626.81,15162.82"/>
    <poly id="115786655" type="water" color="181,209,209" fill="0" layer="-4.00" shape="16983.81,15911.06 16910.58,15886.89 16861.08,15886.39 16727.86,15855.35 16667.86,15840.55 16622.45,15824.80 16483.80,15796.45 16461.85,15792.22 16321.18,15767.22 16241.37,15745.34 16215.59,15744.25 16181.83,15750.23 16163.44,15751.24"/>
    <poly id="115786681" type="parking" color="184,184,179" fill="1" layer="-1.00" shape="15473.82,13213.77 15514.41,13254.26 15556.36,13212.68 15515.75,13172.19 15473.82,13213.77"/>
    <poly id="115786687" type="parking" color="184,184,179" fill="1" layer="-1.00" shape="13157.96,17670.82 13164.94,17676.82 13156.43,17686.60 13210.57,17733.13 13217.38,17725.30 13235.09,17740.52 13262.85,17708.59 13184.02,17640.85 13157.96,17670.82"/>
    <poly id="116298976" type="leisure" color="207,245,201" fill="1" layer="-2.00" shape="13571.60,14741.79 13504.71,14743.03 13492.01,14758.56 13492.44,14771.17 13500.55,14781.44 13562.23,14779.78 13576.96,14767.68 13577.99,14753.32 13571.60,14741.79"/>
    <poly id="116298976#1" type="sport" color="79,230,125" fill="1" layer="-2.00" shape="13571.60,14741.79 13504.71,14743.03 13492.01,14758.56 13492.44,14771.17 13500.55,14781.44 13562.23,14779.78 13576.96,14767.68 13577.99,14753.32 13571.60,14741.79"/>
    <poly id="116298977" type="water" color="181,209,209" fill="0" layer="-4.00" shape="17529.77,17341.16 17629.31,17266.11 17733.22,17193.91 17941.23,17050.66"/>
    <poly id="116298986" type="leisure" color="207,245,201" fill="1" layer="-2.00" shape="13358.56,14976.55 13342.64,14982.96 13333.22,14993.43 13325.75,15004.94 13322.95,15018.56 13325.66,15035.64 13332.93,15047.21 13337.37,15051.76 13337.56,15064.80 13485.52,15057.70 13485.37,15047.39 13491.80,15039.14 13496.04,15030.65 13497.72,15014.87 13494.21,14999.17 13486.62,14985.16 13473.92,14975.56 13460.98,14972.55 13358.56,14976.55"/>
    <poly id="116298986#1" type="sport" color="79,230,125" fill="1" layer="-2.00" shape="13358.56,14976.55 13342.64,14982.96 13333.22,14993.43 13325.75,15004.94 13322.95,15018.56 13325.66,15035.64 13332.93,15047.21 13337.37,15051.76 13337.56,15064.80 13485.52,15057.70 13485.37,15047.39 13491.80,15039.14 13496.04,15030.65 13497.72,15014.87 13494.21,14999.17 13486.62,14985.16 13473.92,14975.56 13460.98,14972.55 13358.56,14976.55"/>
    <poly id="117737781" type="leisure" color="207,245,201" fill="1" layer="-2.00" shape="11856.05,15528.00 11827.76,15539.50 11816.61,15539.07 11809.15,15532.46 11806.40,15521.22 11813.59,15509.64 11871.52,15485.41 11885.28,15486.79 11890.39,15495.82 11889.78,15508.29 11856.05,15528.00"/>
    <poly id="117737781#1" type="sport" color="79,230,125" fill="1" layer="-2.00" shape="11856.05,15528.00 11827.76,15539.50 11816.61,15539.07 11809.15,15532.46 11806.40,15521.22 11813.59,15509.64 11871.52,15485.41 11885.28,15486.79 11890.39,15495.82 11889.78,15508.29 11856.05,15528.00"/>
    <poly id="117737782" type="building" color="255,230,230" fill="1" layer="-1.00" shape="15086.51,16000.83 15080.06,16014.15 15069.61,16023.47 15056.58,16030.95 15040.24,16035.91 15024.39,16037.49 15009.87,16036.62 14995.83,16032.79 14984.64,16027.69 14973.69,16020.97 14964.47,16012.21 14957.13,16001.79 14952.45,15987.97 14951.98,15974.90 14959.31,15938.36 14951.63,15936.79 14957.55,15907.86 14965.73,15909.15 14973.94,15866.62 14979.81,15856.87 14987.97,15849.19 15002.22,15841.29 15021.53,15836.88 15038.38,15837.11 15054.97,15840.25 15068.62,15845.97 15079.71,15852.69 15087.68,15859.45 15095.03,15867.75 15101.91,15877.46 15105.61,15889.00 15106.56,15900.89 15100.34,15934.07 15109.02,15935.88 15102.24,15967.91 15093.84,15966.22 15086.51,16000.83"/>
    <poly id="117737782#1" type="leisure" color="207,245,201" fill="1" layer="-2.00" shape="15086.51,16000.83 15080.06,16014.15 15069.61,16023.47 15056.58,16030.95 15040.24,16035.91 15024.39,16037.49 15009.87,16036.62 14995.83,16032.79 14984.64,16027.69 14973.69,16020.97 14964.47,16012.21 14957.13,16001.79 14952.45,15987.97 14951.98,15974.90 14959.31,15938.36 14951.63,15936.79 14957.55,15907.86 14965.73,15909.15 14973.94,15866.62 14979.81,15856.87 14987.97,15849.19 15002.22,15841.29 15021.53,15836.88 15038.38,15837.11 15054.97,15840.25 15068.62,15845.97 15079.71,15852.69 15087.68,15859.45 15095.03,15867.75 15101.91,15877.46 15105.61,15889.00 15106.56,15900.89 15100.34,15934.07 15109.02,15935.88 15102.24,15967.91 15093.84,15966.22 15086.51,16000.83"/>
    <poly id="117737783" type="leisure" color="207,245,201" fill="1" layer="-2.00" shape="11919.99,15544.90 11935.31,15493.85 11955.61,15499.71 11939.67,15551.09 11919.99,15544.90"/>
    <poly id="117737783#1" type="sport" color="79,230,125" fill="1" layer="-2.00" shape="11919.99,15544.90 11935.31,15493.85 11955.61,15499.71 11939.67,15551.09 11919.99,15544.90"/>
    <poly id="117737785" type="leisure" color="207,245,201" fill="1" layer="-2.00" shape="9682.52,14233.47 9718.04,14197.56 9737.45,14197.51 9748.07,14209.22 9749.89,14230.23 9712.41,14268.90 9694.03,14270.90 9683.17,14259.93 9682.52,14233.47"/>
    <poly id="117737785#1" type="sport" color="79,230,125" fill="1" layer="-2.00" shape="9682.52,14233.47 9718.04,14197.56 9737.45,14197.51 9748.07,14209.22 9749.89,14230.23 9712.41,14268.90 9694.03,14270.90 9683.17,14259.93 9682.52,14233.47"/>
    <poly id="121595821" type="natural" color="140,196,107" fill="1" layer="-4.00" shape="7125.18,11444.91 6928.24,11497.58 6992.67,11659.73 7059.34,11830.99 7190.25,11723.79 7158.05,11660.33 7202.69,11625.49 7125.18,11444.91"/>
    <poly id="121855102" type="amenity" color="237,199,199" fill="1" layer="-1.00" shape="8018.52,11885.47 7901.17,11939.32 7924.66,11994.10 7909.71,12000.90 7922.24,12026.51 7937.48,12019.10 7949.57,12046.25 7962.57,12052.76 8088.90,11989.45 8064.26,11954.39 8052.16,11946.34 8018.52,11885.47"/>
    <poly id="121855103" type="natural" color="140,196,107" fill="1" layer="-4.00" shape="5561.86,9491.77 5683.51,9787.00 5811.24,9967.11 5961.22,10195.12 6161.45,10417.79 6244.68,10831.24 5971.13,11294.16 5909.94,11963.56 5934.97,13006.70 5945.97,13488.27 6199.86,14188.27 6421.84,14965.16 6466.19,15291.51 6697.45,16034.42 6846.46,16600.85 7162.80,17301.51 7541.35,17739.00 7544.85,17430.51 7590.01,17303.34 7701.36,17106.01 7792.92,16990.87 7973.57,16958.08 8107.30,16987.97 8125.98,16992.15 8334.75,17078.45 8443.36,17097.17 8682.10,17027.73 8714.81,16998.11 8700.69,16981.93 8726.69,16924.72 8634.60,16847.16 8619.67,16789.30 8616.01,16733.46 8628.68,16642.89 8578.55,16622.88 8507.83,16604.95 8165.83,16696.39 7909.18,16711.38 7894.29,16597.51 7894.12,16454.57 7895.11,16254.00 7896.20,16118.36 8490.71,16087.74 8487.55,16034.79 8480.96,15980.52 8363.60,15940.41 8268.85,15895.90 8206.85,15836.56 8176.75,15738.02 8178.26,15647.43 8191.71,15581.01 8234.02,15484.24 8280.56,15427.21 8365.42,15395.75 8421.59,15387.22 8470.17,15386.43 8458.95,15349.76 8378.13,15349.83 8325.07,15326.76 8293.44,15249.78 8260.76,15065.08 8242.79,14962.27 8236.39,14888.40 8238.35,14863.32 8225.48,14787.80 8197.51,14758.52 8192.72,14713.17 8197.85,14703.77 8173.21,14662.80 8159.36,14600.11 8172.33,14566.72 8157.25,14499.96 8162.61,14429.41 8190.68,14388.20 8292.66,14354.61 8298.30,14301.52 8312.26,14296.07 8319.27,14255.77 8303.88,14130.78 8283.21,14118.87 8274.72,14100.36 8287.55,14058.23 8292.61,14044.17 8279.40,13907.50 8272.53,13857.97 8174.08,13147.23 8141.02,12785.42 8048.89,12292.58 8013.19,12212.97 7884.08,12080.35 7817.20,12041.68 7775.72,12027.81 7728.82,12020.11 7667.24,12010.01 7490.62,11975.23 7450.11,12012.39 7405.84,12000.67 7343.18,11946.74 7366.19,12014.22 7332.31,12076.09 7335.58,12095.34 7347.90,12083.52 7430.92,12124.51 7473.06,12181.21 7499.42,12186.74 7512.23,12175.93 7530.94,12220.75 7549.25,12228.80 7568.18,12210.31 7575.32,12232.59 7569.88,12245.84 7581.65,12260.84 7546.57,12263.36 7373.68,12134.43 7271.77,12094.42 7199.70,12094.35 7181.58,12112.53 7151.19,12092.35 7045.50,12174.29 6972.43,12109.25 6875.06,12003.91 6859.39,11986.94 7043.79,11832.13 6973.51,11663.40 6906.42,11485.31 7134.11,11427.45 7205.33,11564.17 7340.59,11535.67 7366.42,11530.23 7366.27,11508.19 7365.06,11337.34 7351.66,11271.40 7342.46,11216.46 7332.22,11152.03 7324.51,11096.16 7323.34,10994.72 7318.34,10923.22 7295.74,10868.35 7268.13,10783.45 7238.91,10726.30 7211.17,10697.90 7189.67,10650.21 7182.52,10611.92 7182.24,10526.61 7154.05,10469.43 7125.42,10384.56 7090.48,10269.90 7048.18,10173.32 7028.70,10142.92 6997.08,10105.03 6921.16,10044.48 6825.75,9981.91 6776.85,9961.73 6727.75,9941.46 6687.67,9974.71 6642.11,9998.52 6603.42,9990.55 6582.84,9968.53 6575.25,9952.44 6131.75,9673.77 5947.60,9590.82 5912.83,9534.01 5838.34,9484.37 5561.86,9491.77"/>
    <poly id="121855104" type="water" color="181,209,209" fill="1" layer="-4.00" shape="6142.03,9475.34 6183.36,9504.90 6190.24,9513.38 6195.11,9518.45 6175.39,9559.23 6173.96,9565.56 6135.40,9623.42 6078.03,9588.61 6072.12,9579.15 6062.47,9575.28 6007.15,9542.34 6002.61,9534.40 5988.68,9527.17 5986.98,9516.50 6000.45,9505.98 6001.53,9501.19 6038.38,9476.19 6049.87,9486.70 6060.99,9485.58 6063.37,9477.90 6070.68,9479.31 6075.98,9487.07 6084.21,9484.83 6100.27,9492.99 6117.13,9491.40 6127.76,9482.64 6137.63,9475.99 6142.03,9475.34"/>
    <poly id="121855105" type="leisure" color="207,245,201" fill="1" layer="-2.00" shape="7929.56,11975.88 7959.80,11961.35 7973.10,11988.90 7941.08,12003.17 7929.56,11975.88"/>
    <poly id="121855105#1" type="sport" color="79,230,125" fill="1" layer="-2.00" shape="7929.56,11975.88 7959.80,11961.35 7973.10,11988.90 7941.08,12003.17 7929.56,11975.88"/>
    <poly id="121855106" type="amenity" color="237,199,199" fill="1" layer="-1.00" shape="8089.54,11991.29 7973.07,12050.97 7996.36,12072.12 8059.72,12142.62 8190.80,12129.42 8186.56,12042.44 8120.51,12061.17 8089.54,11991.29"/>
    <poly id="121855107" type="leisure" color="207,245,201" fill="1" layer="-2.00" shape="7927.04,11943.75 7938.67,11938.03 7958.16,11944.79 7983.55,11998.80 7976.18,12018.58 7963.02,12024.70 7944.75,12022.12 7920.51,11968.28 7927.04,11943.75"/>
    <poly id="121855107#1" type="sport" color="79,230,125" fill="1" layer="-2.00" shape="7927.04,11943.75 7938.67,11938.03 7958.16,11944.79 7983.55,11998.80 7976.18,12018.58 7963.02,12024.70 7944.75,12022.12 7920.51,11968.28 7927.04,11943.75"/>
    <poly id="121855108" type="leisure" color="207,245,201" fill="1" layer="-2.00" shape="8002.91,12070.22 8001.40,12051.46 8012.27,12039.54 8030.48,12035.75 8073.35,12077.54 8071.48,12095.90 8056.76,12107.72 8040.34,12107.83 8002.91,12070.22"/>
    <poly id="121855108#1" type="sport" color="79,230,125" fill="1" layer="-2.00" shape="8002.91,12070.22 8001.40,12051.46 8012.27,12039.54 8030.48,12035.75 8073.35,12077.54 8071.48,12095.90 8056.76,12107.72 8040.34,12107.83 8002.91,12070.22"/>
    <poly id="121997905" type="unknown" color="51,128,255" fill="0" layer="-1.00" shape="18562.53,16325.29 18720.90,16537.48 18978.17,16806.00 18961.83,16875.59"/>
    <poly id="122813276" type="leisure" color="207,245,201" fill="1" layer="-2.00" shape="17903.90,13302.12 17983.01,13300.71 17982.29,13260.23 17903.17,13261.65 17903.90,13302.12"/>
    <poly id="122813276#1" type="sport" color="79,230,125" fill="1" layer="-2.00" shape="17903.90,13302.12 17983.01,13300.71 17982.29,13260.23 17903.17,13261.65 17903.90,13302.12"/>
    <poly id="123071118" type="tourism" color="207,245,201" fill="1" layer="-2.00" shape="12667.88,15703.12 12610.19,15738.38 12651.90,15795.81 12702.82,15760.03 12688.73,15742.48 12694.91,15735.84 12667.88,15703.12"/>
    <poly id="123071120" type="leisure" color="207,245,201" fill="1" layer="-2.00" shape="12719.32,16220.28 12696.85,16162.90 12703.94,16149.79 12721.14,16140.04 12739.11,16149.02 12757.80,16205.71 12749.99,16221.33 12737.24,16225.52 12719.32,16220.28"/>
    <poly id="123071120#1" type="sport" color="79,230,125" fill="1" layer="-2.00" shape="12719.32,16220.28 12696.85,16162.90 12703.94,16149.79 12721.14,16140.04 12739.11,16149.02 12757.80,16205.71 12749.99,16221.33 12737.24,16225.52 12719.32,16220.28"/>
    <poly id="123071121" type="leisure" color="207,245,201" fill="1" layer="-2.00" shape="12101.71,14740.01 12138.61,14634.80 12159.97,14618.85 12188.33,14624.68 12204.74,14645.13 12168.85,14765.95 12144.99,14772.55 12120.94,14765.88 12101.71,14740.01"/>
    <poly id="123071121#1" type="sport" color="79,230,125" fill="1" layer="-2.00" shape="12101.71,14740.01 12138.61,14634.80 12159.97,14618.85 12188.33,14624.68 12204.74,14645.13 12168.85,14765.95 12144.99,14772.55 12120.94,14765.88 12101.71,14740.01"/>
    <poly id="123644965" type="unknown" color="51,128,255" fill="0" layer="-1.00" shape="18179.41,17649.21 18157.43,17555.46 18063.18,17247.67 17975.49,17041.86 17974.95,16943.61 17930.49,16749.15 17901.08,16614.00 18086.65,16334.89 18054.23,16169.79 18140.83,15940.13 18274.66,15590.53"/>
    <poly id="123644966" type="leisure" color="207,245,201" fill="1" layer="-2.00" shape="15376.94,15691.44 15345.30,15699.49 15333.51,15692.96 15329.23,15679.96 15331.66,15664.58 15388.78,15640.63 15404.33,15648.17 15410.06,15663.96 15404.08,15679.57 15376.94,15691.44"/>
    <poly id="123644966#1" type="sport" color="79,230,125" fill="1" layer="-2.00" shape="15376.94,15691.44 15345.30,15699.49 15333.51,15692.96 15329.23,15679.96 15331.66,15664.58 15388.78,15640.63 15404.33,15648.17 15410.06,15663.96 15404.08,15679.57 15376.94,15691.44"/>
    <poly id="124904806" type="amenity" color="237,199,199" fill="1" layer="-1.00" shape="14392.63,15410.94 14182.53,15275.92 14120.08,15372.49 14305.81,15493.30 14328.60,15483.79 14346.65,15494.18 14394.51,15419.28 14392.63,15410.94"/>
    <poly id="125552467" type="water" color="181,209,209" fill="1" layer="-4.00" shape="16564.85,24844.50 16651.13,24788.17 16655.11,24782.44 16647.22,24771.63 16632.76,24756.87 16627.46,24756.55 16623.48,24762.68 16609.80,24773.40 16585.56,24785.49 16567.40,24795.89 16563.41,24801.61 16561.29,24823.50 16561.13,24840.50 16564.85,24844.50"/>
    <poly id="125552468" type="water" color="181,209,209" fill="1" layer="-4.00" shape="16769.01,25434.58 16985.95,25591.08 17008.30,25597.86 17040.03,25593.45 17184.40,25464.05 17196.85,25445.68 17197.03,25403.78 17178.60,25393.78 16928.23,25342.12 16886.77,25334.03 16823.29,25342.07 16801.23,25355.05 16765.20,25391.16 16757.52,25410.24 16769.01,25434.58"/>
    <poly id="125552469" type="water" color="181,209,209" fill="1" layer="-4.00" shape="16271.48,24947.74 16310.19,24989.58 16319.67,24991.06 16325.90,24994.54 16322.10,25002.04 16332.03,25012.58 16379.44,25026.13 16394.95,25017.80 16415.26,25003.90 16418.73,24996.72 16415.21,24978.65 16388.66,24944.72 16363.10,24911.41 16349.55,24897.68 16338.78,24896.55 16310.58,24904.74 16289.94,24918.00 16275.79,24930.84 16271.48,24947.74"/>
    <poly id="125552470" type="building" color="255,230,230" fill="0" layer="-1.00" shape="8778.08,21849.57 8716.81,21635.64"/>
    <poly id="125552471" type="water" color="181,209,209" fill="1" layer="-4.00" shape="18279.21,25408.17 18281.85,25501.73 18287.16,25516.83 18299.97,25522.97 18366.67,25518.19 18379.26,25508.53 18393.62,25490.61 18402.34,25477.83 18454.79,25455.56 18467.48,25453.48 18520.89,25452.70 18541.15,25446.71 18546.76,25439.04 18544.66,25406.44 18538.90,25402.07 18534.29,25393.23 18535.01,25386.34 18530.79,25376.29 18291.68,25390.30 18285.72,25400.11 18279.62,25401.40 18279.21,25408.17"/>
    <poly id="125552472" type="water" color="181,209,209" fill="1" layer="-4.00" shape="16659.85,24774.48 16689.23,24751.38 16710.21,24739.34 16721.93,24733.10 16754.09,24705.50 16785.60,24689.66 16756.43,24643.53 16730.83,24619.21 16723.04,24614.89 16714.49,24615.41 16701.07,24616.02 16679.24,24625.65 16663.95,24638.41 16657.18,24647.83 16653.30,24661.24 16645.69,24704.78 16650.56,24720.28 16653.57,24741.45 16630.99,24749.40 16642.11,24757.34 16652.39,24765.29 16659.85,24774.48"/>
    <poly id="125552473" type="water" color="181,209,209" fill="1" layer="-4.00" shape="16996.30,24742.30 17029.85,24743.11 17059.08,24737.49 17076.98,24736.91 17092.44,24725.67 17110.52,24715.04 17117.57,24707.81 17134.10,24702.06 17158.73,24693.94 17174.40,24696.30 17176.86,24686.87 17164.54,24668.59 17141.07,24644.33 17126.29,24636.12 17112.24,24632.44 17086.80,24629.25 17081.26,24629.66 17034.37,24673.74 17025.00,24678.41 17006.41,24676.74 16996.02,24701.18 16995.62,24718.03 16996.13,24730.33 16996.30,24742.30"/>
    <poly id="125552474" type="water" color="181,209,209" fill="1" layer="-4.00" shape="18515.48,25932.50 18538.29,25926.47 18730.27,25878.14 18752.95,25863.27 18759.88,25859.36 18762.26,25848.58 18755.59,25826.54 18747.66,25806.43 18744.14,25783.08 18740.10,25767.33 18730.20,25742.80 18718.28,25710.72 18716.73,25691.14 18717.83,25679.74 18712.43,25657.69 18702.13,25649.61 18676.72,25651.25 18605.74,25668.10 18588.84,25686.68 18466.72,25859.22 18461.94,25880.15 18476.33,25907.77 18493.76,25925.22 18515.48,25932.50"/>
    <poly id="125552477" type="building" color="255,230,230" fill="0" layer="-1.00" shape="8370.93,22223.32 8414.76,22124.77 8409.92,21921.39"/>
    <poly id="125552478" type="water" color="181,209,209" fill="1" layer="-4.00" shape="17191.01,24676.63 17215.08,24653.21 17211.73,24646.78 17212.78,24635.03 17221.24,24628.83 17231.04,24631.12 17256.73,24606.45 17253.39,24601.24 17256.51,24591.07 17264.18,24587.32 17272.28,24584.37 17279.19,24583.46 17307.32,24559.16 17323.86,24548.80 17328.95,24535.36 17334.00,24518.69 17328.06,24502.59 17318.04,24485.33 17310.47,24468.85 17297.57,24450.01 17286.87,24442.07 17275.08,24442.65 17225.00,24468.88 17185.70,24509.53 17171.91,24540.91 17166.94,24562.44 17162.16,24569.39 17134.59,24604.19 17121.82,24621.79 17123.13,24627.84 17133.35,24630.93 17151.00,24641.60 17169.92,24654.68 17177.87,24669.14 17181.68,24678.80 17188.65,24682.74 17191.01,24676.63"/>
    <poly id="125552479" type="building" color="255,230,230" fill="0" layer="-1.00" shape="8072.21,21973.64 8218.95,21879.02 8340.52,21873.85 8716.81,21635.64 8929.79,21500.81 9049.27,21430.80"/>
    <poly id="125674314" type="unknown" color="51,128,255" fill="0" layer="-1.00" shape="18863.30,2443.26 19074.41,2462.59 19236.64,2465.75 19711.58,2480.54 20182.56,2476.34 20594.90,2495.37 21291.49,2571.19 21451.57,2631.22 21712.00,2672.96 21945.85,2711.06 22291.28,2768.83 22561.84,2823.64 22975.75,2980.51 23355.82,3205.05 23373.98,3215.77 23426.56,3246.84 23781.15,3452.20 24346.68,3754.06 24479.53,3823.49 24774.95,3967.01 25244.29,4206.01 25611.97,4385.27 25849.16,4513.47 26170.49,4726.74 26387.98,4866.50 26774.61,5216.15 27281.16,5592.42 27567.45,5805.11 27892.92,6240.94 28008.39,6397.37 28340.36,6811.76 28585.15,7217.14 28815.25,7584.62 29148.42,7784.86 29591.02,8102.24 29874.84,8263.80 30057.39,8389.34 30353.17,8580.49 30543.11,8718.87 30884.82,8919.93 31326.55,9190.37 31701.29,9434.67 32075.84,9687.19 32463.00,9946.80 32700.11,10100.08 33021.21,10270.57 33219.77,10361.52 33516.13,10519.45 33720.48,10604.99 34081.70,10761.71 34450.16,11023.99 34743.30,11248.23 34931.99,11410.63 35176.27,11604.99 35290.82,11723.04 35457.68,11900.08 35939.27,12379.72 35967.98,12562.30 36033.32,12969.74 36096.02,13337.85 36152.58,13720.45 36217.59,14099.95 36285.43,14526.69 36271.96,14800.64 36272.62,15352.36 36269.22,15615.99 36242.59,16128.46 36382.08,16460.48 36509.14,16803.75 36583.48,17144.66 36726.44,17361.88"/>
    <poly id="125742243" type="water" color="181,209,209" fill="1" layer="-4.00" shape="10944.94,22663.52 10969.85,22695.94 10976.23,22698.37 11012.89,22673.47 11019.66,22668.58 11016.95,22657.26 10993.34,22622.80 10989.52,22621.34 10944.88,22655.07 10942.66,22659.39 10944.94,22663.52"/>
    <poly id="125742244" type="water" color="181,209,209" fill="1" layer="-4.00" shape="10803.04,22482.61 10811.17,22496.68 10849.39,22545.51 10852.46,22547.48 10913.87,22515.27 10889.49,22479.81 10864.07,22443.11 10860.76,22442.65 10832.56,22456.45 10805.48,22477.54 10803.04,22482.61"/>