<?xml version="1.0"?>
<!-- generated on 2017-01-17 11:35:44.002307 by $Id: randomTrips.py 20482 2016-04-18 20:49:42Z behrisch $
  options: -n /opt/local/bin/map.net.xml -o /opt/local/bin/trips2.trips.xml -e 100 -l
-->
<trips>
    <trip id="0" depart="0.00" from="141030694" to="-175126005" />
    <trip id="1" depart="1.00" from="459208820#1" to="-37673918#2" />
    <trip id="2" depart="2.00" from="-249492394#3" to="443805250#0" />
    <trip id="3" depart="3.00" from="297375662" to="-446817806#1" />
    <trip id="4" depart="4.00" from="178869353" to="445540895" />
    <trip id="5" depart="5.00" from="-455270020#1" to="-102940159#6" />
    <trip id="6" depart="6.00" from="216211887#0" to="8028478" />
    <trip id="7" depart="7.00" from="-115786611#1" to="198560804#1" />
    <trip id="8" depart="8.00" from="207560647" to="186202994#0" />
    <trip id="9" depart="9.00" from="204193486#3" to="293869114#2" />
    <trip id="10" depart="10.00" from="154546538#0" to="376213818" />
    <trip id="11" depart="11.00" from="-385144546#3" to="-191383202#0" />
    <trip id="12" depart="12.00" from="327371935" to="323920391" />
    <trip id="13" depart="13.00" from="-318336229#1" to="320255256#0" />
    <trip id="14" depart="14.00" from="-247667711#2" to="-431881593#0" />
    <trip id="15" depart="15.00" from="-458059140" to="324650959#0" />
    <trip id="16" depart="16.00" from="-255013597" to="36747891" />
    <trip id="17" depart="17.00" from="-260866117" to="-201937772#0" />
    <trip id="18" depart="18.00" from="380948044#1" to="255924164#0" />
    <trip id="19" depart="19.00" from="188216250" to="-192321505#0" />
    <trip id="20" depart="20.00" from="-335904118#1" to="440552126#0" />
    <trip id="21" depart="21.00" from="-353886052#3" to="318505650#0" />
    <trip id="22" depart="22.00" from="321443008#1" to="-452954796" />
    <trip id="23" depart="23.00" from="315843002#1" to="-254210111#0" />
    <trip id="24" depart="24.00" from="355791329" to="127026386#0" />
    <trip id="25" depart="25.00" from="-183943764#0" to="36726276#1" />
    <trip id="26" depart="26.00" from="321782408#7" to="190921863#1" />
    <trip id="27" depart="27.00" from="-377476234#0" to="-295503881#1" />
    <trip id="28" depart="28.00" from="321627789#0" to="362694795#5" />
    <trip id="29" depart="29.00" from="-368397215#1" to="-371671256#0" />
    <trip id="30" depart="30.00" from="175314774" to="-198874032#2" />
    <trip id="31" depart="31.00" from="367753093#0" to="-255924208#5" />
    <trip id="32" depart="32.00" from="-251611266" to="219667055" />
    <trip id="33" depart="33.00" from="420083962" to="143051460#3" />
    <trip id="34" depart="34.00" from="102940169" to="-286364544" />
    <trip id="35" depart="35.00" from="254210104#1" to="-254293222#0" />
    <trip id="36" depart="36.00" from="322461284" to="254324777#5" />
    <trip id="37" depart="37.00" from="141924159#3" to="353982268#0" />
    <trip id="38" depart="38.00" from="328902493#3" to="-318505656#2" />
    <trip id="39" depart="39.00" from="-143036600#0" to="-260547660#3" />
    <trip id="40" depart="40.00" from="364449609#4" to="-323602180#4" />
    <trip id="41" depart="41.00" from="-380945322#0" to="447204534#1" />
    <trip id="42" depart="42.00" from="-247667711#0" to="186726723#4" />
    <trip id="43" depart="43.00" from="443340431#1" to="319107541#2" />
    <trip id="44" depart="44.00" from="-166047084#4" to="-232291969" />
    <trip id="45" depart="45.00" from="158744274#1" to="-320794728" />
    <trip id="46" depart="46.00" from="-189597547" to="-186726697#0" />
    <trip id="47" depart="47.00" from="377281851" to="326853797#2" />
    <trip id="48" depart="48.00" from="198560800#3" to="-205501349#4" />
    <trip id="49" depart="49.00" from="-219667082#9" to="137974279#1" />
    <trip id="50" depart="50.00" from="143049996#1" to="322456994#0" />
    <trip id="51" depart="51.00" from="255924232#1" to="126487405" />
    <trip id="52" depart="52.00" from="130226223#2" to="167591379" />
    <trip id="53" depart="53.00" from="240547072#2" to="260501618#0" />
    <trip id="54" depart="54.00" from="446187979#0" to="33549374" />
    <trip id="55" depart="55.00" from="234309663#3" to="129972227" />
    <trip id="56" depart="56.00" from="143038810#1" to="35953163" />
    <trip id="57" depart="57.00" from="199775633" to="255928803#0" />
    <trip id="58" depart="58.00" from="-376213818" to="36728885#0" />
    <trip id="59" depart="59.00" from="-455270020#1" to="-144703197#0" />
    <trip id="60" depart="60.00" from="-8035784" to="-380341647#5" />
    <trip id="61" depart="61.00" from="-130850590#1" to="-443804753" />
    <trip id="62" depart="62.00" from="-247679164" to="-445538234#4" />
    <trip id="63" depart="63.00" from="328915432#0" to="329826239#6" />
    <trip id="64" depart="64.00" from="-97344502" to="369685831#1" />
    <trip id="65" depart="65.00" from="445534973#2" to="-458093438" />
    <trip id="66" depart="66.00" from="-92002691#0" to="115786650#6" />
    <trip id="67" depart="67.00" from="442496680" to="327260601#3" />
    <trip id="68" depart="68.00" from="328908578#0" to="329118824#2" />
    <trip id="69" depart="69.00" from="-260547660#1" to="-250568873#1" />
    <trip id="70" depart="70.00" from="364449609#3" to="-244402563#0" />
    <trip id="71" depart="71.00" from="188344558#1" to="-153209242#5" />
    <trip id="72" depart="72.00" from="-426193713" to="255640768#0" />
    <trip id="73" depart="73.00" from="286896827#2" to="-255788371#0" />
    <trip id="74" depart="74.00" from="-327363914" to="322167103#2" />
    <trip id="75" depart="75.00" from="188216281" to="-440449053#1" />
    <trip id="76" depart="76.00" from="255924240#3" to="368397208#1" />
    <trip id="77" depart="77.00" from="-35434075#3" to="-458093448#0" />
    <trip id="78" depart="78.00" from="-262044974#1" to="-42142756#3" />
    <trip id="79" depart="79.00" from="-256994740#0" to="417877122#2" />
    <trip id="80" depart="80.00" from="-442147056#1" to="-340773337#3" />
    <trip id="81" depart="81.00" from="199775635#0" to="-380341659#1" />
    <trip id="82" depart="82.00" from="-408841552" to="327379567#10" />
    <trip id="83" depart="83.00" from="255926671" to="188009331#2" />
    <trip id="84" depart="84.00" from="198560815" to="-321637315" />
    <trip id="85" depart="85.00" from="203546255#4" to="142086737#0" />
    <trip id="86" depart="86.00" from="330169383#3" to="-142875992#3" />
    <trip id="87" depart="87.00" from="203843122" to="99596848#0" />
    <trip id="88" depart="88.00" from="126794530#0" to="174415336#2" />
    <trip id="89" depart="89.00" from="-103972671#6" to="328535079#0" />
    <trip id="90" depart="90.00" from="137965042#2" to="121752077" />
    <trip id="91" depart="91.00" from="-444756113#1" to="144705725#6" />
    <trip id="92" depart="92.00" from="174813454#0" to="-446836410#4" />
    <trip id="93" depart="93.00" from="29252063#5" to="258897064#3" />
    <trip id="94" depart="94.00" from="242614241#4" to="-446192244" />
    <trip id="95" depart="95.00" from="-115786704#1" to="-323742780#0" />
    <trip id="96" depart="96.00" from="329819298#1" to="438776091#0" />
    <trip id="97" depart="97.00" from="458041207#0" to="-241127880#8" />
    <trip id="98" depart="98.00" from="-255013265" to="191383198" />
    <trip id="99" depart="99.00" from="424473897#0" to="323734351#1" />
</trips>
