<?xml version="1.0"?>
<!-- generated on 2016-12-20 14:18:46.392768 by $Id: randomTrips.py 20482 2016-04-18 20:49:42Z behrisch $
  options: -n /Users/FreeGeng/desktop/map.net.xml -r map.rou.xml -e 100 -l
-->
<trips>
    <trip id="0" depart="0.00" from="362694798#0" to="328914791#2" />
    <trip id="1" depart="1.00" from="243516999#11" to="-379720469#0" />
    <trip id="2" depart="2.00" from="-142885695#1" to="-440300571#1" />
    <trip id="3" depart="3.00" from="-246449112" to="-323570759" />
    <trip id="4" depart="4.00" from="324704990#1" to="425310242#2" />
    <trip id="5" depart="5.00" from="289092782#0" to="124999333#0" />
    <trip id="6" depart="6.00" from="-324376214#1" to="201937774#4" />
    <trip id="7" depart="7.00" from="137963027#1" to="-136889170#3" />
    <trip id="8" depart="8.00" from="-328909934#0" to="121753632#3" />
    <trip id="9" depart="9.00" from="392574729#2" to="326846396#0" />
    <trip id="10" depart="10.00" from="321934219" to="190921851#0" />
    <trip id="11" depart="11.00" from="139572368#3" to="255928831#0" />
    <trip id="12" depart="12.00" from="-36726276#2" to="-368110150#5" />
    <trip id="13" depart="13.00" from="188602627" to="-188602622" />
    <trip id="14" depart="14.00" from="-203544074#1" to="440552155#1" />
    <trip id="15" depart="15.00" from="425473984" to="379720540#1" />
    <trip id="16" depart="16.00" from="443818239" to="160486576#1" />
    <trip id="17" depart="17.00" from="-313704200#0" to="241101204#12" />
    <trip id="18" depart="18.00" from="188615647" to="-362694795#5" />
    <trip id="19" depart="19.00" from="368601633#8" to="329852069#1" />
    <trip id="20" depart="20.00" from="-190921862" to="320794727#4" />
    <trip id="21" depart="21.00" from="330169364#3" to="174813452#4" />
    <trip id="22" depart="22.00" from="326495230#1" to="-253274660#2" />
    <trip id="23" depart="23.00" from="188018795#1" to="272354292#2" />
    <trip id="24" depart="24.00" from="-327379552#0" to="316633191#5" />
    <trip id="25" depart="25.00" from="258897064#6" to="8036101" />
    <trip id="26" depart="26.00" from="369788735#1" to="-198877692#0" />
    <trip id="27" depart="27.00" from="-186763693#3" to="272762884#14" />
    <trip id="28" depart="28.00" from="42142756#0" to="136698561#1" />
    <trip id="29" depart="29.00" from="-323049200" to="-92375457#0" />
    <trip id="30" depart="30.00" from="143055498#0" to="362795287#0" />
    <trip id="31" depart="31.00" from="-326481252#4" to="329804685#3" />
    <trip id="32" depart="32.00" from="-166047112#10" to="-174813469#5" />
    <trip id="33" depart="33.00" from="-273087108#1" to="453467031" />
    <trip id="34" depart="34.00" from="243637488#0" to="-382892367#0" />
    <trip id="35" depart="35.00" from="-369788752" to="-448720202" />
    <trip id="36" depart="36.00" from="289092778#3" to="-174813436#0" />
    <trip id="37" depart="37.00" from="186203069#5" to="327353905#2" />
    <trip id="38" depart="38.00" from="8029761#11" to="-198560925#1" />
    <trip id="39" depart="39.00" from="-328524749" to="-363696895#2" />
    <trip id="40" depart="40.00" from="-448874605" to="190921835#0" />
    <trip id="41" depart="41.00" from="-446836424#1" to="323735917#2" />
    <trip id="42" depart="42.00" from="442147056#7" to="285856024#1" />
    <trip id="43" depart="43.00" from="129972223" to="198876060#0" />
    <trip id="44" depart="44.00" from="-256018075#2" to="175126005" />
    <trip id="45" depart="45.00" from="-93523123#2" to="-324511964" />
    <trip id="46" depart="46.00" from="-290803991#1" to="-185336270#1" />
    <trip id="47" depart="47.00" from="142226380#1" to="-132193587#1" />
    <trip id="48" depart="48.00" from="166841505#0" to="323958651#3" />
    <trip id="49" depart="49.00" from="-185740086#2" to="-265600041" />
    <trip id="50" depart="50.00" from="364451416#1" to="-42142756#3" />
    <trip id="51" depart="51.00" from="392574726" to="391513480#0" />
    <trip id="52" depart="52.00" from="-329802541" to="141030694" />
    <trip id="53" depart="53.00" from="329846558#3" to="-128023487#9" />
    <trip id="54" depart="54.00" from="-153209315#5" to="440300555" />
    <trip id="55" depart="55.00" from="174415331" to="-441724999#1" />
    <trip id="56" depart="56.00" from="-192321485" to="-445538033#0" />
    <trip id="57" depart="57.00" from="158374625#3" to="-369021745#3" />
    <trip id="58" depart="58.00" from="122813267#3" to="265736743#12" />
    <trip id="59" depart="59.00" from="392623893#7" to="328364403#0" />
    <trip id="60" depart="60.00" from="-186726674#1" to="380945314#3" />
    <trip id="61" depart="61.00" from="329831111#1" to="324376224#1" />
    <trip id="62" depart="62.00" from="330169375#1" to="329813222#2" />
    <trip id="63" depart="63.00" from="257131830#4" to="37107772#0" />
    <trip id="64" depart="64.00" from="-219667080#0" to="229895146" />
    <trip id="65" depart="65.00" from="320935999#1" to="141800530#2" />
    <trip id="66" depart="66.00" from="102940156" to="-123071096#1" />
    <trip id="67" depart="67.00" from="329802589#1" to="28970182#0" />
    <trip id="68" depart="68.00" from="-326330157#0" to="-330742509" />
    <trip id="69" depart="69.00" from="326685332#0" to="-377452870" />
    <trip id="70" depart="70.00" from="329846566#2" to="-198560809#4" />
    <trip id="71" depart="71.00" from="-368601633#11" to="-203546129#0" />
    <trip id="72" depart="72.00" from="-458041225#1" to="-39315236#0" />
    <trip id="73" depart="73.00" from="-99527883" to="-321443010#0" />
    <trip id="74" depart="74.00" from="-35273699" to="-330604147#2" />
    <trip id="75" depart="75.00" from="151177538#0" to="185336250" />
    <trip id="76" depart="76.00" from="316380963" to="441778677" />
    <trip id="77" depart="77.00" from="8035780#4" to="321811133#0" />
    <trip id="78" depart="78.00" from="-362694791" to="-55616582#14" />
    <trip id="79" depart="79.00" from="-161671701#2" to="289092790#1" />
    <trip id="80" depart="80.00" from="-377476231" to="328220874#9" />
    <trip id="81" depart="81.00" from="323599509#3" to="198560799" />
    <trip id="82" depart="82.00" from="-262044974#1" to="182240899#0" />
    <trip id="83" depart="83.00" from="328915436#3" to="368401880#0" />
    <trip id="84" depart="84.00" from="-440545508#3" to="-443350026" />
    <trip id="85" depart="85.00" from="153209278" to="255924828#9" />
    <trip id="86" depart="86.00" from="321938357" to="127026364#2" />
    <trip id="87" depart="87.00" from="-143040185#5" to="224877051#7" />
    <trip id="88" depart="88.00" from="321934564" to="448721504" />
    <trip id="89" depart="89.00" from="272082226#8" to="-131542556#3" />
    <trip id="90" depart="90.00" from="128023478#3" to="29252063#2" />
    <trip id="91" depart="91.00" from="377476230" to="131542556#1" />
    <trip id="92" depart="92.00" from="-328914791#0" to="327353889" />
    <trip id="93" depart="93.00" from="319107520#2" to="143036598" />
    <trip id="94" depart="94.00" from="153209281#7" to="190921852#1" />
    <trip id="95" depart="95.00" from="115786675#0" to="-362003780#12" />
    <trip id="96" depart="96.00" from="247676367" to="-143049678#0" />
    <trip id="97" depart="97.00" from="-256068280#0" to="326694469#4" />
    <trip id="98" depart="98.00" from="-445545170#0" to="-458041225#1" />
    <trip id="99" depart="99.00" from="171844396" to="141727603" />
</trips>
